LTspice 24.1.10 for Windows
Circuit: C:\Users\13285\Desktop\ese6710\final\ESE6710-Final-Project\Spice\pushpullphi2.txt
Start Time: Tue Dec 23 04:25:10 2025
Options: itl1=100000  itl2=100000  itl4=100000  method=Trap abstol=1n vntol=1e-3 reltol=0.001 solver=alt  measdgt=99  numdgt=99  gmin=1e-15
C:\Users\13285\Desktop\ese6710\final\ESE6710-Final-Project\Spice\SN74LVC1G34.cir(141): Note: The caret character means exponentiation in this context. If you wish to silence this warning, use the "**" operator instead or add ".OPTIONS NO_CARET_WARNING" to your netlist.
+ 2*MAXICC*((V(IN,VEE)-VT)/V(VCC,VEE))^2)*(1 + SGN(V(VCC,VEE) - VCC_MIN))*V(VSWITCH,VEE)}
                                      ^
C:\Users\13285\Desktop\ese6710\final\ESE6710-Final-Project\Spice\SN74LVC1G34.cir(143): Note: The caret character means exponentiation in this context. If you wish to silence this warning, use the "**" operator instead or add ".OPTIONS NO_CARET_WARNING" to your netlist.
+ 2*MAXICC*((V(IN,VEE)-VT)/V(VCC,VEE))^2)*(1 + SGN(V(VCC,VEE) - VCC_MIN))*V(VSWITCH,VEE)}
                                      ^
C:\Users\13285\Desktop\ese6710\final\ESE6710-Final-Project\Spice\SN74LVC1G34.cir(145): Note: The caret character means exponentiation in this context. If you wish to silence this warning, use the "**" operator instead or add ".OPTIONS NO_CARET_WARNING" to your netlist.
+ 2*MAXICC*((V(IN,VEE)-(V(VCC,VEE)-VT))/V(VCC,VEE))^2)*(1 + SGN(V(VCC,VEE) - VCC_MIN))*V(VSWITCH1,VEE)}
                                                   ^
C:\Users\13285\Desktop\ese6710\final\ESE6710-Final-Project\Spice\SN74LVC1G34.cir(147): Note: The caret character means exponentiation in this context. If you wish to silence this warning, use the "**" operator instead or add ".OPTIONS NO_CARET_WARNING" to your netlist.
+ 2*MAXICC*((V(IN,VEE)-(V(VCC,VEE)-VT))/V(VCC,VEE))^2)*(1 + SGN(V(VCC,VEE) - VCC_MIN))*V(VSWITCH1,VEE)}
                                                   ^
C:\Users\13285\Desktop\ese6710\final\ESE6710-Final-Project\Spice\SN74LVC1G34.cir(141): Note: The caret character means exponentiation in this context. If you wish to silence this warning, use the "**" operator instead or add ".OPTIONS NO_CARET_WARNING" to your netlist.
+ 2*MAXICC*((V(IN,VEE)-VT)/V(VCC,VEE))^2)*(1 + SGN(V(VCC,VEE) - VCC_MIN))*V(VSWITCH,VEE)}
                                      ^
C:\Users\13285\Desktop\ese6710\final\ESE6710-Final-Project\Spice\SN74LVC1G34.cir(143): Note: The caret character means exponentiation in this context. If you wish to silence this warning, use the "**" operator instead or add ".OPTIONS NO_CARET_WARNING" to your netlist.
+ 2*MAXICC*((V(IN,VEE)-VT)/V(VCC,VEE))^2)*(1 + SGN(V(VCC,VEE) - VCC_MIN))*V(VSWITCH,VEE)}
                                      ^
C:\Users\13285\Desktop\ese6710\final\ESE6710-Final-Project\Spice\SN74LVC1G34.cir(145): Note: The caret character means exponentiation in this context. If you wish to silence this warning, use the "**" operator instead or add ".OPTIONS NO_CARET_WARNING" to your netlist.
+ 2*MAXICC*((V(IN,VEE)-(V(VCC,VEE)-VT))/V(VCC,VEE))^2)*(1 + SGN(V(VCC,VEE) - VCC_MIN))*V(VSWITCH1,VEE)}
                                                   ^
C:\Users\13285\Desktop\ese6710\final\ESE6710-Final-Project\Spice\SN74LVC1G34.cir(147): Note: The caret character means exponentiation in this context. If you wish to silence this warning, use the "**" operator instead or add ".OPTIONS NO_CARET_WARNING" to your netlist.
+ 2*MAXICC*((V(IN,VEE)-(V(VCC,VEE)-VT))/V(VCC,VEE))^2)*(1 + SGN(V(VCC,VEE) - VCC_MIN))*V(VSWITCH1,VEE)}
                                                   ^
C:\Users\13285\Desktop\ese6710\final\ESE6710-Final-Project\Spice\SN74LVC1G34.cir(141): Note: The caret character means exponentiation in this context. If you wish to silence this warning, use the "**" operator instead or add ".OPTIONS NO_CARET_WARNING" to your netlist.
+ 2*MAXICC*((V(IN,VEE)-VT)/V(VCC,VEE))^2)*(1 + SGN(V(VCC,VEE) - VCC_MIN))*V(VSWITCH,VEE)}
                                      ^
C:\Users\13285\Desktop\ese6710\final\ESE6710-Final-Project\Spice\SN74LVC1G34.cir(143): Note: The caret character means exponentiation in this context. If you wish to silence this warning, use the "**" operator instead or add ".OPTIONS NO_CARET_WARNING" to your netlist.
+ 2*MAXICC*((V(IN,VEE)-VT)/V(VCC,VEE))^2)*(1 + SGN(V(VCC,VEE) - VCC_MIN))*V(VSWITCH,VEE)}
                                      ^
C:\Users\13285\Desktop\ese6710\final\ESE6710-Final-Project\Spice\SN74LVC1G34.cir(145): Note: The caret character means exponentiation in this context. If you wish to silence this warning, use the "**" operator instead or add ".OPTIONS NO_CARET_WARNING" to your netlist.
+ 2*MAXICC*((V(IN,VEE)-(V(VCC,VEE)-VT))/V(VCC,VEE))^2)*(1 + SGN(V(VCC,VEE) - VCC_MIN))*V(VSWITCH1,VEE)}
                                                   ^
C:\Users\13285\Desktop\ese6710\final\ESE6710-Final-Project\Spice\SN74LVC1G34.cir(147): Note: The caret character means exponentiation in this context. If you wish to silence this warning, use the "**" operator instead or add ".OPTIONS NO_CARET_WARNING" to your netlist.
+ 2*MAXICC*((V(IN,VEE)-(V(VCC,VEE)-VT))/V(VCC,VEE))^2)*(1 + SGN(V(VCC,VEE) - VCC_MIN))*V(VSWITCH1,VEE)}
                                                   ^
C:\Users\13285\Desktop\ese6710\final\ESE6710-Final-Project\Spice\SN74LVC1G34.cir(141): Note: The caret character means exponentiation in this context. If you wish to silence this warning, use the "**" operator instead or add ".OPTIONS NO_CARET_WARNING" to your netlist.
+ 2*MAXICC*((V(IN,VEE)-VT)/V(VCC,VEE))^2)*(1 + SGN(V(VCC,VEE) - VCC_MIN))*V(VSWITCH,VEE)}
                                      ^
C:\Users\13285\Desktop\ese6710\final\ESE6710-Final-Project\Spice\SN74LVC1G34.cir(143): Note: The caret character means exponentiation in this context. If you wish to silence this warning, use the "**" operator instead or add ".OPTIONS NO_CARET_WARNING" to your netlist.
+ 2*MAXICC*((V(IN,VEE)-VT)/V(VCC,VEE))^2)*(1 + SGN(V(VCC,VEE) - VCC_MIN))*V(VSWITCH,VEE)}
                                      ^
C:\Users\13285\Desktop\ese6710\final\ESE6710-Final-Project\Spice\SN74LVC1G34.cir(145): Note: The caret character means exponentiation in this context. If you wish to silence this warning, use the "**" operator instead or add ".OPTIONS NO_CARET_WARNING" to your netlist.
+ 2*MAXICC*((V(IN,VEE)-(V(VCC,VEE)-VT))/V(VCC,VEE))^2)*(1 + SGN(V(VCC,VEE) - VCC_MIN))*V(VSWITCH1,VEE)}
                                                   ^
C:\Users\13285\Desktop\ese6710\final\ESE6710-Final-Project\Spice\SN74LVC1G34.cir(147): Note: The caret character means exponentiation in this context. If you wish to silence this warning, use the "**" operator instead or add ".OPTIONS NO_CARET_WARNING" to your netlist.
+ 2*MAXICC*((V(IN,VEE)-(V(VCC,VEE)-VT))/V(VCC,VEE))^2)*(1 + SGN(V(VCC,VEE) - VCC_MIN))*V(VSWITCH1,VEE)}
                                                   ^
solver = Alternate
Maximum thread count: 20
tnom = 27
temp = 27
method = trap
gmin = 1e-15
abstol = 1e-09
volttol = 0.001
Per .tran options, skipping operating point for transient analysis.
Total elapsed time: 93.669 seconds.

Files loaded:
C:\Users\13285\Desktop\ese6710\final\ESE6710-Final-Project\Spice\pushpullphi2.txt
C:\Users\13285\Desktop\ese6710\final\ESE6710-Final-Project\Spice\CoolGaN Transistors 100 V G3 - Spice.lib
C:\Users\13285\Desktop\ese6710\final\ESE6710-Final-Project\Spice\LM5114A_TRANS.lib
C:\Users\13285\Desktop\ese6710\final\ESE6710-Final-Project\Spice\SN74LVC1G34.cir
C:\Users\13285\Desktop\ese6710\final\ESE6710-Final-Project\Spice\ST_POWER_SCHOTTKY_V10.LIB
C:\Users\13285\Desktop\ese6710\final\ESE6710-Final-Project\Spice\rb168lam100tf_ltspice.lib
C:\Users\13285\Desktop\ese6710\final\ESE6710-Final-Project\Spice\rb058lam100_ltspice.lib

show_lf: L1=2.758216196651578e-06
show_lmr: L2=5.516432393303157e-07
show_cmr: C2=2.497253233727097e-10
show_cpext: C1ext=2.72770001687647e-10
show_rl: RL_phase=25
show_l1andl2: Ls2=4.118277262637669e-06
show_c1andc2: Cs2=1.338028282630978e-10
pavg: INTEG(I(R_L)*V(Vout))=1.616972809023832e-05 FROM 0 TO 4.424778761061927e-07
pin: INTEG(I(V1)*V(in))=-1.685346695894857e-05 FROM 0 TO 4.424778761061927e-07
eff: (-Pavg/Pin)=0.959430372968619
Measurement "siwtchloss1" FAIL'ed
Measurement "siwtchloss2" FAIL'ed
Measurement "d1loss" FAIL'ed
Measurement "d2loss" FAIL'ed
Measurement "d3loss" FAIL'ed
Measurement "d4loss" FAIL'ed
Measurement "coil2power" FAIL'ed
Measurement "loss1" FAIL'ed
Measurement "loss2" FAIL'ed
Measurement "loss3" FAIL'ed
Measurement "loss4" FAIL'ed
Measurement "loss5" FAIL'ed
Measurement "loss6" FAIL'ed
