LTspice 24.1.10 for Windows
Circuit: C:\Users\13285\Desktop\ese6710\final\ESE6710-Final-Project\Spice\pushpullphi2.txt
Start Time: Tue Dec 30 21:30:00 2025
Options: Thev_Induc=1  itl1=100000  itl2=100000  itl4=100000  method=Trap abstol=1n vntol=1e-3 reltol=0.001 solver=alt  measdgt=99  numdgt=99  gmin=1e-15
C:\Users\13285\Desktop\ese6710\final\ESE6710-Final-Project\Spice\SN74LVC1G34.cir(141): Note: The caret character means exponentiation in this context. If you wish to silence this warning, use the "**" operator instead or add ".OPTIONS NO_CARET_WARNING" to your netlist.
+ 2*MAXICC*((V(IN,VEE)-VT)/V(VCC,VEE))^2)*(1 + SGN(V(VCC,VEE) - VCC_MIN))*V(VSWITCH,VEE)}
                                      ^
C:\Users\13285\Desktop\ese6710\final\ESE6710-Final-Project\Spice\SN74LVC1G34.cir(143): Note: The caret character means exponentiation in this context. If you wish to silence this warning, use the "**" operator instead or add ".OPTIONS NO_CARET_WARNING" to your netlist.
+ 2*MAXICC*((V(IN,VEE)-VT)/V(VCC,VEE))^2)*(1 + SGN(V(VCC,VEE) - VCC_MIN))*V(VSWITCH,VEE)}
                                      ^
C:\Users\13285\Desktop\ese6710\final\ESE6710-Final-Project\Spice\SN74LVC1G34.cir(145): Note: The caret character means exponentiation in this context. If you wish to silence this warning, use the "**" operator instead or add ".OPTIONS NO_CARET_WARNING" to your netlist.
+ 2*MAXICC*((V(IN,VEE)-(V(VCC,VEE)-VT))/V(VCC,VEE))^2)*(1 + SGN(V(VCC,VEE) - VCC_MIN))*V(VSWITCH1,VEE)}
                                                   ^
C:\Users\13285\Desktop\ese6710\final\ESE6710-Final-Project\Spice\SN74LVC1G34.cir(147): Note: The caret character means exponentiation in this context. If you wish to silence this warning, use the "**" operator instead or add ".OPTIONS NO_CARET_WARNING" to your netlist.
+ 2*MAXICC*((V(IN,VEE)-(V(VCC,VEE)-VT))/V(VCC,VEE))^2)*(1 + SGN(V(VCC,VEE) - VCC_MIN))*V(VSWITCH1,VEE)}
                                                   ^
C:\Users\13285\Desktop\ese6710\final\ESE6710-Final-Project\Spice\SN74LVC1G34.cir(141): Note: The caret character means exponentiation in this context. If you wish to silence this warning, use the "**" operator instead or add ".OPTIONS NO_CARET_WARNING" to your netlist.
+ 2*MAXICC*((V(IN,VEE)-VT)/V(VCC,VEE))^2)*(1 + SGN(V(VCC,VEE) - VCC_MIN))*V(VSWITCH,VEE)}
                                      ^
C:\Users\13285\Desktop\ese6710\final\ESE6710-Final-Project\Spice\SN74LVC1G34.cir(143): Note: The caret character means exponentiation in this context. If you wish to silence this warning, use the "**" operator instead or add ".OPTIONS NO_CARET_WARNING" to your netlist.
+ 2*MAXICC*((V(IN,VEE)-VT)/V(VCC,VEE))^2)*(1 + SGN(V(VCC,VEE) - VCC_MIN))*V(VSWITCH,VEE)}
                                      ^
C:\Users\13285\Desktop\ese6710\final\ESE6710-Final-Project\Spice\SN74LVC1G34.cir(145): Note: The caret character means exponentiation in this context. If you wish to silence this warning, use the "**" operator instead or add ".OPTIONS NO_CARET_WARNING" to your netlist.
+ 2*MAXICC*((V(IN,VEE)-(V(VCC,VEE)-VT))/V(VCC,VEE))^2)*(1 + SGN(V(VCC,VEE) - VCC_MIN))*V(VSWITCH1,VEE)}
                                                   ^
C:\Users\13285\Desktop\ese6710\final\ESE6710-Final-Project\Spice\SN74LVC1G34.cir(147): Note: The caret character means exponentiation in this context. If you wish to silence this warning, use the "**" operator instead or add ".OPTIONS NO_CARET_WARNING" to your netlist.
+ 2*MAXICC*((V(IN,VEE)-(V(VCC,VEE)-VT))/V(VCC,VEE))^2)*(1 + SGN(V(VCC,VEE) - VCC_MIN))*V(VSWITCH1,VEE)}
                                                   ^
C:\Users\13285\Desktop\ese6710\final\ESE6710-Final-Project\Spice\SN74LVC1G34.cir(141): Note: The caret character means exponentiation in this context. If you wish to silence this warning, use the "**" operator instead or add ".OPTIONS NO_CARET_WARNING" to your netlist.
+ 2*MAXICC*((V(IN,VEE)-VT)/V(VCC,VEE))^2)*(1 + SGN(V(VCC,VEE) - VCC_MIN))*V(VSWITCH,VEE)}
                                      ^
C:\Users\13285\Desktop\ese6710\final\ESE6710-Final-Project\Spice\SN74LVC1G34.cir(143): Note: The caret character means exponentiation in this context. If you wish to silence this warning, use the "**" operator instead or add ".OPTIONS NO_CARET_WARNING" to your netlist.
+ 2*MAXICC*((V(IN,VEE)-VT)/V(VCC,VEE))^2)*(1 + SGN(V(VCC,VEE) - VCC_MIN))*V(VSWITCH,VEE)}
                                      ^
C:\Users\13285\Desktop\ese6710\final\ESE6710-Final-Project\Spice\SN74LVC1G34.cir(145): Note: The caret character means exponentiation in this context. If you wish to silence this warning, use the "**" operator instead or add ".OPTIONS NO_CARET_WARNING" to your netlist.
+ 2*MAXICC*((V(IN,VEE)-(V(VCC,VEE)-VT))/V(VCC,VEE))^2)*(1 + SGN(V(VCC,VEE) - VCC_MIN))*V(VSWITCH1,VEE)}
                                                   ^
C:\Users\13285\Desktop\ese6710\final\ESE6710-Final-Project\Spice\SN74LVC1G34.cir(147): Note: The caret character means exponentiation in this context. If you wish to silence this warning, use the "**" operator instead or add ".OPTIONS NO_CARET_WARNING" to your netlist.
+ 2*MAXICC*((V(IN,VEE)-(V(VCC,VEE)-VT))/V(VCC,VEE))^2)*(1 + SGN(V(VCC,VEE) - VCC_MIN))*V(VSWITCH1,VEE)}
                                                   ^
C:\Users\13285\Desktop\ese6710\final\ESE6710-Final-Project\Spice\SN74LVC1G34.cir(141): Note: The caret character means exponentiation in this context. If you wish to silence this warning, use the "**" operator instead or add ".OPTIONS NO_CARET_WARNING" to your netlist.
+ 2*MAXICC*((V(IN,VEE)-VT)/V(VCC,VEE))^2)*(1 + SGN(V(VCC,VEE) - VCC_MIN))*V(VSWITCH,VEE)}
                                      ^
C:\Users\13285\Desktop\ese6710\final\ESE6710-Final-Project\Spice\SN74LVC1G34.cir(143): Note: The caret character means exponentiation in this context. If you wish to silence this warning, use the "**" operator instead or add ".OPTIONS NO_CARET_WARNING" to your netlist.
+ 2*MAXICC*((V(IN,VEE)-VT)/V(VCC,VEE))^2)*(1 + SGN(V(VCC,VEE) - VCC_MIN))*V(VSWITCH,VEE)}
                                      ^
C:\Users\13285\Desktop\ese6710\final\ESE6710-Final-Project\Spice\SN74LVC1G34.cir(145): Note: The caret character means exponentiation in this context. If you wish to silence this warning, use the "**" operator instead or add ".OPTIONS NO_CARET_WARNING" to your netlist.
+ 2*MAXICC*((V(IN,VEE)-(V(VCC,VEE)-VT))/V(VCC,VEE))^2)*(1 + SGN(V(VCC,VEE) - VCC_MIN))*V(VSWITCH1,VEE)}
                                                   ^
C:\Users\13285\Desktop\ese6710\final\ESE6710-Final-Project\Spice\SN74LVC1G34.cir(147): Note: The caret character means exponentiation in this context. If you wish to silence this warning, use the "**" operator instead or add ".OPTIONS NO_CARET_WARNING" to your netlist.
+ 2*MAXICC*((V(IN,VEE)-(V(VCC,VEE)-VT))/V(VCC,VEE))^2)*(1 + SGN(V(VCC,VEE) - VCC_MIN))*V(VSWITCH1,VEE)}
                                                   ^
solver = Alternate
Maximum thread count: 20
tnom = 27
temp = 27
method = trap
gmin = 1e-15
abstol = 1e-09
volttol = 0.001
ERROR: Node n_cs2 is floating and connected to current source F1

Per .tran options, skipping operating point for transient analysis.
.step duty=0.3
C:\Users\13285\Desktop\ese6710\final\ESE6710-Final-Project\Spice\SN74LVC1G34.cir(141): Note: The caret character means exponentiation in this context. If you wish to silence this warning, use the "**" operator instead or add ".OPTIONS NO_CARET_WARNING" to your netlist.
+ 2*MAXICC*((V(IN,VEE)-VT)/V(VCC,VEE))^2)*(1 + SGN(V(VCC,VEE) - VCC_MIN))*V(VSWITCH,VEE)}
                                      ^
C:\Users\13285\Desktop\ese6710\final\ESE6710-Final-Project\Spice\SN74LVC1G34.cir(143): Note: The caret character means exponentiation in this context. If you wish to silence this warning, use the "**" operator instead or add ".OPTIONS NO_CARET_WARNING" to your netlist.
+ 2*MAXICC*((V(IN,VEE)-VT)/V(VCC,VEE))^2)*(1 + SGN(V(VCC,VEE) - VCC_MIN))*V(VSWITCH,VEE)}
                                      ^
C:\Users\13285\Desktop\ese6710\final\ESE6710-Final-Project\Spice\SN74LVC1G34.cir(145): Note: The caret character means exponentiation in this context. If you wish to silence this warning, use the "**" operator instead or add ".OPTIONS NO_CARET_WARNING" to your netlist.
+ 2*MAXICC*((V(IN,VEE)-(V(VCC,VEE)-VT))/V(VCC,VEE))^2)*(1 + SGN(V(VCC,VEE) - VCC_MIN))*V(VSWITCH1,VEE)}
                                                   ^
C:\Users\13285\Desktop\ese6710\final\ESE6710-Final-Project\Spice\SN74LVC1G34.cir(147): Note: The caret character means exponentiation in this context. If you wish to silence this warning, use the "**" operator instead or add ".OPTIONS NO_CARET_WARNING" to your netlist.
+ 2*MAXICC*((V(IN,VEE)-(V(VCC,VEE)-VT))/V(VCC,VEE))^2)*(1 + SGN(V(VCC,VEE) - VCC_MIN))*V(VSWITCH1,VEE)}
                                                   ^
C:\Users\13285\Desktop\ese6710\final\ESE6710-Final-Project\Spice\SN74LVC1G34.cir(141): Note: The caret character means exponentiation in this context. If you wish to silence this warning, use the "**" operator instead or add ".OPTIONS NO_CARET_WARNING" to your netlist.
+ 2*MAXICC*((V(IN,VEE)-VT)/V(VCC,VEE))^2)*(1 + SGN(V(VCC,VEE) - VCC_MIN))*V(VSWITCH,VEE)}
                                      ^
C:\Users\13285\Desktop\ese6710\final\ESE6710-Final-Project\Spice\SN74LVC1G34.cir(143): Note: The caret character means exponentiation in this context. If you wish to silence this warning, use the "**" operator instead or add ".OPTIONS NO_CARET_WARNING" to your netlist.
+ 2*MAXICC*((V(IN,VEE)-VT)/V(VCC,VEE))^2)*(1 + SGN(V(VCC,VEE) - VCC_MIN))*V(VSWITCH,VEE)}
                                      ^
C:\Users\13285\Desktop\ese6710\final\ESE6710-Final-Project\Spice\SN74LVC1G34.cir(145): Note: The caret character means exponentiation in this context. If you wish to silence this warning, use the "**" operator instead or add ".OPTIONS NO_CARET_WARNING" to your netlist.
+ 2*MAXICC*((V(IN,VEE)-(V(VCC,VEE)-VT))/V(VCC,VEE))^2)*(1 + SGN(V(VCC,VEE) - VCC_MIN))*V(VSWITCH1,VEE)}
                                                   ^
C:\Users\13285\Desktop\ese6710\final\ESE6710-Final-Project\Spice\SN74LVC1G34.cir(147): Note: The caret character means exponentiation in this context. If you wish to silence this warning, use the "**" operator instead or add ".OPTIONS NO_CARET_WARNING" to your netlist.
+ 2*MAXICC*((V(IN,VEE)-(V(VCC,VEE)-VT))/V(VCC,VEE))^2)*(1 + SGN(V(VCC,VEE) - VCC_MIN))*V(VSWITCH1,VEE)}
                                                   ^
C:\Users\13285\Desktop\ese6710\final\ESE6710-Final-Project\Spice\SN74LVC1G34.cir(141): Note: The caret character means exponentiation in this context. If you wish to silence this warning, use the "**" operator instead or add ".OPTIONS NO_CARET_WARNING" to your netlist.
+ 2*MAXICC*((V(IN,VEE)-VT)/V(VCC,VEE))^2)*(1 + SGN(V(VCC,VEE) - VCC_MIN))*V(VSWITCH,VEE)}
                                      ^
C:\Users\13285\Desktop\ese6710\final\ESE6710-Final-Project\Spice\SN74LVC1G34.cir(143): Note: The caret character means exponentiation in this context. If you wish to silence this warning, use the "**" operator instead or add ".OPTIONS NO_CARET_WARNING" to your netlist.
+ 2*MAXICC*((V(IN,VEE)-VT)/V(VCC,VEE))^2)*(1 + SGN(V(VCC,VEE) - VCC_MIN))*V(VSWITCH,VEE)}
                                      ^
C:\Users\13285\Desktop\ese6710\final\ESE6710-Final-Project\Spice\SN74LVC1G34.cir(145): Note: The caret character means exponentiation in this context. If you wish to silence this warning, use the "**" operator instead or add ".OPTIONS NO_CARET_WARNING" to your netlist.
+ 2*MAXICC*((V(IN,VEE)-(V(VCC,VEE)-VT))/V(VCC,VEE))^2)*(1 + SGN(V(VCC,VEE) - VCC_MIN))*V(VSWITCH1,VEE)}
                                                   ^
C:\Users\13285\Desktop\ese6710\final\ESE6710-Final-Project\Spice\SN74LVC1G34.cir(147): Note: The caret character means exponentiation in this context. If you wish to silence this warning, use the "**" operator instead or add ".OPTIONS NO_CARET_WARNING" to your netlist.
+ 2*MAXICC*((V(IN,VEE)-(V(VCC,VEE)-VT))/V(VCC,VEE))^2)*(1 + SGN(V(VCC,VEE) - VCC_MIN))*V(VSWITCH1,VEE)}
                                                   ^
C:\Users\13285\Desktop\ese6710\final\ESE6710-Final-Project\Spice\SN74LVC1G34.cir(141): Note: The caret character means exponentiation in this context. If you wish to silence this warning, use the "**" operator instead or add ".OPTIONS NO_CARET_WARNING" to your netlist.
+ 2*MAXICC*((V(IN,VEE)-VT)/V(VCC,VEE))^2)*(1 + SGN(V(VCC,VEE) - VCC_MIN))*V(VSWITCH,VEE)}
                                      ^
C:\Users\13285\Desktop\ese6710\final\ESE6710-Final-Project\Spice\SN74LVC1G34.cir(143): Note: The caret character means exponentiation in this context. If you wish to silence this warning, use the "**" operator instead or add ".OPTIONS NO_CARET_WARNING" to your netlist.
+ 2*MAXICC*((V(IN,VEE)-VT)/V(VCC,VEE))^2)*(1 + SGN(V(VCC,VEE) - VCC_MIN))*V(VSWITCH,VEE)}
                                      ^
C:\Users\13285\Desktop\ese6710\final\ESE6710-Final-Project\Spice\SN74LVC1G34.cir(145): Note: The caret character means exponentiation in this context. If you wish to silence this warning, use the "**" operator instead or add ".OPTIONS NO_CARET_WARNING" to your netlist.
+ 2*MAXICC*((V(IN,VEE)-(V(VCC,VEE)-VT))/V(VCC,VEE))^2)*(1 + SGN(V(VCC,VEE) - VCC_MIN))*V(VSWITCH1,VEE)}
                                                   ^
C:\Users\13285\Desktop\ese6710\final\ESE6710-Final-Project\Spice\SN74LVC1G34.cir(147): Note: The caret character means exponentiation in this context. If you wish to silence this warning, use the "**" operator instead or add ".OPTIONS NO_CARET_WARNING" to your netlist.
+ 2*MAXICC*((V(IN,VEE)-(V(VCC,VEE)-VT))/V(VCC,VEE))^2)*(1 + SGN(V(VCC,VEE) - VCC_MIN))*V(VSWITCH1,VEE)}
                                                   ^
.step duty=0.4
Total elapsed time: 347.266 seconds.

Files loaded:
C:\Users\13285\Desktop\ese6710\final\ESE6710-Final-Project\Spice\pushpullphi2.txt
C:\Users\13285\Desktop\ese6710\final\ESE6710-Final-Project\Spice\CoolGaN Transistors 100 V G3 - Spice.lib
C:\Users\13285\Desktop\ese6710\final\ESE6710-Final-Project\Spice\LM5114A_TRANS.lib
C:\Users\13285\Desktop\ese6710\final\ESE6710-Final-Project\Spice\SN74LVC1G34.cir
C:\Users\13285\Desktop\ese6710\final\ESE6710-Final-Project\Spice\ST_POWER_SCHOTTKY_V10.LIB
C:\Users\13285\Desktop\ese6710\final\ESE6710-Final-Project\Spice\rb168lam100tf_ltspice.lib
C:\Users\13285\Desktop\ese6710\final\ESE6710-Final-Project\Spice\rb058lam100_ltspice.lib
C:\Users\13285\Desktop\ese6710\final\ESE6710-Final-Project\Spice\OptiMOS_OptiMOS5_60V_LTSpice.lib


Measurement: show_lf
  step	L1
     1	2.758216196651578e-06
     2	2.758216196651578e-06

Measurement: show_lmr
  step	L2
     1	5.516432393303157e-07
     2	5.516432393303157e-07

Measurement: show_cmr
  step	C2
     1	2.497253233727097e-10
     2	2.497253233727097e-10

Measurement: show_cpext
  step	C1ext
     1	2.72770001687647e-10
     2	2.72770001687647e-10

Measurement: show_rl
  step	RL_phase
     1	25
     2	25

Measurement: show_l1andl2
  step	Ls2
     1	4.118277262637669e-06
     2	4.118277262637669e-06

Measurement: show_c1andc2
  step	Cs2
     1	1.338028282630978e-10
     2	1.338028282630978e-10

Measurement: iin
  step	AVG(-I(V1))	FROM	TO
     1	1.608568049749104	0	1.474926253687316e-06
     2	1.914421042387826	0	1.474926253687316e-06

Measurement: vin
  step	AVG(V(in))	FROM	TO
     1	24.99999999995253	0	1.474926253687316e-06
     2	24.9999999999525	0	1.474926253687316e-06

Measurement: iout
  step	AVG(I(R_L))	FROM	TO
     1	0.7948315721168787	0	1.474926253687316e-06
     2	0.8201055436756075	0	1.474926253687316e-06

Measurement: vout
  step	AVG(V(Vout))	FROM	TO
     1	49.02918552603051	0	1.474926253687316e-06
     2	50.58821046163131	0	1.474926253687316e-06

Measurement: vds1max
  step	MAX(V(n_top_mid))	FROM	TO
     1	57.68890908948111	0	1.474926253687316e-06
     2	61.95248593931667	0	1.474926253687316e-06

Measurement: vds2max
  step	MAX(V(n_bot_mid))	FROM	TO
     1	57.57163641392772	0	1.474926253687316e-06
     2	62.44382894873143	0	1.474926253687316e-06

Measurement: t1
  step	V(Mid_Node)=0
     1	9.414686447286203e-08
     2	1.099382147977707e-07

Measurement: t2
  step	V(Mid_Node)=0
     1	1.678889701326877e-07
     2	1.836227468486646e-07

Measurement: t
  step	't2 - t1'
     1	7.374210565982571e-08
     2	7.368453205089388e-08

Measurement: mrfreq
  step	1/T
     1	13560773.60487951
     2	13571369.35210907

Measurement: vmrpp
  step	PP(V(Mid_Node))	FROM	TO
     1	114.0429595071956	0	1.474926253687316e-06
     2	119.6722386791127	0	1.474926253687316e-06

Measurement: vsecpp
  step	PP(V(Sec_res)-V(Sec_c22))	FROM	TO
     1	99.79026832676792	0	1.474926253687316e-06
     2	102.9194979877123	0	1.474926253687316e-06

Measurement: pinavg
  step	AVG(I(V1)*V(in))	FROM	TO
     1	-40.21420124372831	0	1.474926253687316e-06
     2	-47.86052605969699	0	1.474926253687316e-06

Measurement: pout
  step	INTEG(I(R_L)*V(Vout))	FROM	TO
     1	5.747787370819155e-05	0	1.474926253687316e-06
     2	6.119133975248079e-05	0	1.474926253687316e-06

Measurement: poutavg
  step	AVG(I(R_L)*V(Vout))	FROM	TO
     1	38.9699983740489	0	1.474926253687316e-06
     2	41.48772835206999	0	1.474926253687316e-06

Measurement: pin
  step	INTEG(I(V1)*V(in))	FROM	TO
     1	-5.931298118559976e-05	0	1.474926253687316e-06
     2	-7.059074640092356e-05	0	1.474926253687316e-06

Measurement: eff
  step	(-Pout/Pin)
     1	0.9690606096553153
     2	0.8668464759522674
