LTspice 24.1.10 for Windows
Circuit: C:\Users\13285\Desktop\ese6710\final\ESE6710-Final-Project\Spice\rectifier.txt
Start Time: Sun Dec 21 04:32:04 2025
Options: itl1=100000  itl2=100000  itl4=100000  method=Trap abstol=1n vntol=1e-3 reltol=0.001 maxord=1 solver=alt  measdgt=99  numdgt=99  gmin=1e-15
solver = Alternate
Maximum thread count: 20
tnom = 27
temp = 27
method = trap
gmin = 1e-15
abstol = 1e-09
volttol = 0.001
Per .tran options, skipping operating point for transient analysis.
Total elapsed time: 4.216 seconds.

Files loaded:
C:\Users\13285\Desktop\ese6710\final\ESE6710-Final-Project\Spice\rectifier.txt
C:\Users\13285\Desktop\ese6710\final\ESE6710-Final-Project\Spice\rb058lam100_ltspice.lib
C:\Users\13285\Desktop\ese6710\final\ESE6710-Final-Project\Spice\ST_POWER_SCHOTTKY_V10.LIB

